data_quartz
_space_group_name_H-M_alt         'P 62 2 2'
_cell_length_a                    5.01
_cell_length_b                    5.01
_cell_length_c                    5.47
_cell_angle_alpha                 90
_cell_angle_beta                  90
_cell_angle_gamma                 120
loop_
  _atom_site_label
  _atom_site_type_symbol
  _atom_site_fract_x
  _atom_site_fract_y
  _atom_site_fract_z
  _atom_site_U_iso_or_equiv
   Si Si 0.500 0.500 0.333 0.200
   O O 0.197 -0.197 0.833 0.200
